psse/psse-converter/src/test/resources/twoSubstations_rev35.raw
@!IC,SBASE,REV,XFRRAT,NXFRAT,BASFRQ
0,  100.00, 35,     0,     1, 50.00     / PSS(R)E 35 RAW created by rawd35  FRI, DEC 20 2024   9:50
TITLE: TWO SUBSTATIONS CASE
MADE ON: FECHA=2024-12-05 HORA=17:21:00
GENERAL, THRSHZ=0.0001, PQBRAK=0.7, BLOWUP=5.0, MaxIsolLvls=4, CAMaxReptSln=20, ChkDupCntLbl=0
GAUSS, ITMX=100, ACCP=1.6, ACCQ=1.6, ACCM=1.0, TOL=0.0001
NEWTON, ITMXN=20, ACCN=1.0, TOLN=0.1, VCTOLQ=0.1, VCTOLV=0.00001, DVLIM=0.99, NDVFCT=0.99
ADJUST, ADJTHR=0.005, ACCTAP=1.0, TAPLIM=0.05, SWVBND=100.0, MXTPSS=99, MXSWIM=10
TYSL, ITMXTY=20, ACCTY=1.0, TOLTY=0.00001
RATING, 1, "RATE1 ", "RATING SET 1                    "
RATING, 2, "RATE2 ", "RATING SET 2                    "
RATING, 3, "RATE3 ", "RATING SET 3                    "
RATING, 4, "RATE4 ", "RATING SET 4                    "
RATING, 5, "RATE5 ", "RATING SET 5                    "
RATING, 6, "RATE6 ", "RATING SET 6                    "
RATING, 7, "RATE7 ", "RATING SET 7                    "
RATING, 8, "RATE8 ", "RATING SET 8                    "
RATING, 9, "RATE9 ", "RATING SET 9                    "
RATING,10, "RATE10", "RATING SET 10                   "
RATING,11, "RATE11", "RATING SET 11                   "
RATING,12, "RATE12", "RATING SET 12                   "
0 / END OF SYSTEM-WIDE DATA, BEGIN BUS DATA
@!   I,'NAME        ', BASKV, IDE,AREA,ZONE,OWNER, VM,        VA,    NVHI,   NVLO,   EVHI,   EVLO
     1,'BUS-S1-220  ', 220.0000,3,   1,   1,   1,1.00000,   0.0000,1.10000,0.90000,1.10000,0.90000
     2,'BUS-S2-220  ', 220.0000,1,   1,   1,   1,0.99683,  -1.1918,1.10000,0.90000,1.10000,0.90000
     3,'BUS-S2-15   ',  15.0000,2,   1,   1,   1,0.95692,  -1.1918,1.10000,0.90000,1.10000,0.90000
     4,'BUS-S2-45   ',  45.0000,1,   1,   1,   1,1.02309,  -4.0158,1.10000,0.90000,1.10000,0.90000
     5,'BUS-S2-10   ',  10.0000,1,   1,   1,   1,1.00990,  -4.8600,1.10000,0.90000,1.10000,0.90000
0 / END OF BUS DATA, BEGIN LOAD DATA
@!   I,'ID',STAT,AREA,ZONE,      PL,        QL,        IP,        IQ,        YP,        YQ, OWNER,SCALE,INTRPT,  DGENP,     DGENQ,DGENF,'  LOAD TYPE '
     4,'1 ',   1,   1,   3,     8.105,    -1.177,     0.000,     0.000,     0.000,     0.000,   1,    1,  0,     0.000,     0.000,    0,'            '
     5,'1 ',   1,   1,   3,     6.428,    -2.763,     0.000,     0.000,     0.000,     0.000,   1,    1,  0,     0.000,     0.000,    0,'            '
0 / END OF LOAD DATA, BEGIN FIXED SHUNT DATA
@!   I,'ID',STATUS,  GL,        BL
0 / END OF FIXED SHUNT DATA, BEGIN GENERATOR DATA
@!   I,'ID',      PG,        QG,        QT,        QB,     VS,    IREG,NREG,     MBASE,     ZR,         ZX,         RT,         XT,     GTAP,STAT, RMPCT,      PT,        PB,BASLOD,O1,    F1,  O2,    F2,  O3,    F3,  O4,    F4,WMOD, WPF
     1,'2 ',     0.000,     0.000,    10.830,   -10.830,1.00000,     1,   0,    39.470, 0.00000E+0, 1.00000E+0, 0.00000E+0, 0.00000E+0,1.00000,0,  100.0,    37.150,     0.500, 0,   1,1.0000
     3,'1 ',     0.000,     0.000,    11.030,   -11.030,1.00000,     3,   0,    40.190, 0.00000E+0, 1.00000E+0, 0.00000E+0, 0.00000E+0,1.00000,0,  100.0,    37.830,     0.500, 0,   1,1.0000
0 / END OF GENERATOR DATA, BEGIN BRANCH DATA
@!   I,     J,'CKT',      R,           X,       B,                   'N A M E'                 ,  RATE1,  RATE2,  RATE3,  RATE4,  RATE5,  RATE6,  RATE7,  RATE8,  RATE9, RATE10, RATE11, RATE12,   GI,      BI,      GJ,      BJ,STAT,MET, LEN,  O1,  F1,    O2,  F2,    O3,  F3,    O4,  F4
     1,     2,'3 ', 5.32100E-02, 1.28730E-01,0.01305,'LINE-S1-220-S2-220                      ',  90.00,  99.00, 108.00,   0.00,   0.00,   0.00,   0.00,   0.00,   0.00,   0.00,   0.00,   0.00, 0.00000, 0.00000, 0.00000, 0.00000,1,1,  0.00,   1,1.0000
0 / END OF BRANCH DATA, BEGIN SYSTEM SWITCHING DEVICE DATA
@!   I,     J,'CKT',          X,  RATE1,  RATE2,  RATE3,  RATE4,  RATE5,  RATE6,  RATE7,  RATE8,  RATE9, RATE10, RATE11, RATE12, STAT,NSTAT,  MET,STYPE,'NAME'
0 / END OF SYSTEM SWITCHING DEVICE DATA, BEGIN TRANSFORMER DATA
@!   I,     J,     K,'CKT',CW,CZ,CM,     MAG1,        MAG2,NMETR,               'N A M E',               STAT,O1,  F1,    O2,  F2,    O3,  F3,    O4,  F4,     'VECGRP', ZCOD
@!   R1-2,       X1-2, SBASE1-2,     R2-3,       X2-3, SBASE2-3,     R3-1,       X3-1, SBASE3-1, VMSTAR,   ANSTAR
@!WINDV1, NOMV1,   ANG1, RATE1-1, RATE1-2, RATE1-3, RATE1-4, RATE1-5, RATE1-6, RATE1-7, RATE1-8, RATE1-9,RATE1-10,RATE1-11,RATE1-12,COD1,CONT1,NOD1,  RMA1,   RMI1,   VMA1,   VMI1, NTP1,TAB1, CR1,    CX1,  CNXA1
@!WINDV2, NOMV2,   ANG2, RATE2-1, RATE2-2, RATE2-3, RATE2-4, RATE2-5, RATE2-6, RATE2-7, RATE2-8, RATE2-9,RATE2-10,RATE2-11,RATE2-12,COD2,CONT2,NOD2,  RMA2,   RMI2,   VMA2,   VMI2, NTP2,TAB2, CR2,    CX2,  CNXA2
@!WINDV3, NOMV3,   ANG3, RATE3-1, RATE3-2, RATE3-3, RATE3-4, RATE3-5, RATE3-6, RATE3-7, RATE3-8, RATE3-9,RATE3-10,RATE3-11,RATE3-12,COD3,CONT3,NOD3,  RMA3,   RMI3,   VMA3,   VMI3, NTP3,TAB3, CR3,    CX3,  CNXA3
     2,     3,     0,'3 ', 1, 1, 1, 0.00000E+00, 0.00000E+00,2,'T2D-S2-220-15                           ',1,   1,1.0000,   0,1.0000,   0,1.0000,   0,1.0000,'            '
 7.12000E-03, 2.84080E-01, 100.00
1.04170,  0.000,  0.000,   60.00,   66.00,   72.00,    0.00,    0.00,    0.00,    0.00,    0.00,    0.00,    0.00,    0.00,    0.00, 0,      0,   0,1.08900,0.80490,1.10000,0.90000,  25, 0,0.00000,0.00000, 0.000
1.00000,   0.00
     2,     4,     5,'2 ', 1, 1, 1, 0.00000E+00, 0.00000E+00,2,'T3D-S2-220-45-10                        ',1,   1,1.0000,   0,1.0000,   0,1.0000,   0,1.0000,'            ', 0
 1.94100E-02, 3.04010E-01, 100.00, 1.42200E-02, 1.71010E-01, 100.00, 1.99100E-02, 5.13820E-01, 100.00,0.96964,  -4.1061
1.03847,  0.000,  0.000,   30.00,   33.00,   36.00,    0.00,    0.00,    0.00,    0.00,    0.00,    0.00,    0.00,    0.00,    0.00, 0,      0,   0,1.09095,0.81819,1.10000,0.90000,  27, 0,0.00000,0.00000, 0.000
1.05600,  0.000,  0.000,   30.00,   33.00,   36.00,    0.00,    0.00,    0.00,    0.00,    0.00,    0.00,    0.00,    0.00,    0.00, 0,      0,   0,1.05600,1.05600,1.10000,0.90000,   2, 0,0.00000,0.00000, 0.000
1.03636,  0.000,  0.000,   30.00,   33.00,   36.00,    0.00,    0.00,    0.00,    0.00,    0.00,    0.00,    0.00,    0.00,    0.00, 0,      0,   0,1.03636,1.03636,1.10000,0.90000,   2, 0,0.00000,0.00000, 0.000
0 / END OF TRANSFORMER DATA, BEGIN AREA DATA
@! I,   ISW,    PDES,     PTOL,    'ARNAME'
0 / END OF AREA DATA, BEGIN TWO-TERMINAL DC DATA
@!  'NAME',   MDC,    RDC,     SETVL,    VSCHD,    VCMOD,    RCOMP,   DELTI,METER   DCVMIN,CCCITMX,CCCACC
@! IPR,NBR,  ANMXR,  ANMNR,   RCR,    XCR,   EBASR,  TRR,    TAPR,   TMXR,   TMNR,   STPR,    ICR,NDR,   IFR,   ITR,'IDR', XCAPR
@! IPI,NBI,  ANMXI,  ANMNI,   RCI,    XCI,   EBASI,  TRI,    TAPI,   TMXI,   TMNI,   STPI,    ICI,NDI,   IFI,   ITI,'IDI', XCAPI
0 / END OF TWO-TERMINAL DC DATA, BEGIN VSC DC LINE DATA
@!  'NAME',   MDC,  RDC,   O1,  F1,    O2,  F2,    O3,  F3,    O4,  F4
@!IBUS,TYPE,MODE,  DCSET,  ACSET,  ALOSS,  BLOSS,MINLOSS,  SMAX,   IMAX,   PWF,     MAXQ,   MINQ, VSREG,NREG, RMPCT
0 / END OF VSC DC LINE DATA, BEGIN IMPEDANCE CORRECTION DATA
@!I,  T1,   Re(F1), Im(F1),   T2,   Re(F2), Im(F2),   T3,   Re(F3), Im(F3),   T4,   Re(F4), Im(F4),   T5,   Re(F5), Im(F5),   T6,   Re(F6), Im(F6)
@!    T7,   Re(F7), Im(F7),   T8,   Re(F8), Im(F8),   T9,   Re(F9), Im(F9),   T10, Re(F10),Im(F10),   T11, Re(F11),Im(F11),   T12, Re(F12),Im(F12)
@!      ...
0 / END OF IMPEDANCE CORRECTION DATA, BEGIN MULTI-TERMINAL DC DATA
@!  'NAME',    NCONV,NDCBS,NDCLN,  MDC, VCONV,   VCMOD, VCONVN
@!  IB, N,  ANGMX,  ANGMN,   RC,     XC,     EBAS,   TR,    TAP,    TPMX,   TPMN,   TSTP,   SETVL,   DCPF,  MARG,CNVCOD
@!IDC, IB,AREA,ZONE,   'DCNAME',  IDC2, RGRND,OWNER
@!IDC,JDC,'DCCKT',MET,  RDC,      LDC
0 / END OF MULTI-TERMINAL DC DATA, BEGIN MULTI-SECTION LINE DATA
@!   I,     J,'ID',MET,DUM1,  DUM2,  DUM3,  DUM4,  DUM5,  DUM6,  DUM7,  DUM8,  DUM9
0 / END OF MULTI-SECTION LINE DATA, BEGIN ZONE DATA
@! I,   'ZONAME'
   1,'XA          '
0 / END OF ZONE DATA, BEGIN INTER-AREA TRANSFER DATA
@!ARFROM,ARTO,'TRID',PTRAN
0 / END OF INTER-AREA TRANSFER DATA, BEGIN OWNER DATA
@! I,   'OWNAME'
0 / END OF OWNER DATA, BEGIN FACTS DEVICE DATA
@!  'NAME',         I,     J,MODE,PDES,   QDES,  VSET,   SHMX,   TRMX,   VTMN,   VTMX,   VSMX,    IMX,   LINX,   RMPCT,OWNER,  SET1,    SET2,VSREF, FCREG,NREG,   'MNAME'
0 / END OF FACTS DEVICE DATA, BEGIN SWITCHED SHUNT DATA
@!   I,'ID',MODSW,ADJM,ST, VSWHI,  VSWLO, SWREG,NREG, RMPCT,   'RMIDNT',     BINIT,S1,N1,    B1, S2,N2,    B2, S3,N3,    B3, S4,N4,    B4, S5,N5,    B5, S6,N6,    B6, S7,N7,    B7, S8,N8,    B8
     3,'1 ',   0,  0,  1,1.00000,1.00000,     3,   0, 100.0,'            ',   0.00, 1, 1,   5.00, 1, 1,   5.00
0 / END OF SWITCHED SHUNT DATA, BEGIN GNE DATA
@!  'NAME',        'MODEL',     NTERM,BUS1...BUSNTERM,NREAL,NINTG,NCHAR
@!ST,OWNER,NMETR
@! REAL1...REAL(MIN(10,NREAL))
@! INTG1...INTG(MIN(10,NINTG))
@! CHAR1...CHAR(MIN(10,NCHAR))
0 / END OF GNE DATA, BEGIN INDUCTION MACHINE DATA
@!   I,'ID',ST,SC,DC,AREA,ZONE,OWNER,TC,BC, MBASE,RATEKV,PC,  PSET,     H,      A,      B,      D,      E,     RA,        XA,        XM,        R1,        X1,        R2,        X2,        X3,       E1,    SE1,   E2,    SE2,   IA1,   IA2, XAMULT
0 / END OF INDUCTION MACHINE DATA, BEGIN SUBSTATION DATA
@! BEGIN SUBSTATION DATA BLOCK
@!  IS,                'N A M E'                 ,    LATITUDE,   LONGITUDE,    SGR
     1,'S1                                      ',   0.0000000,   0.0000000, 0.1000
@! BEGIN SUBSTATION NODE DATA
@!  NI,                'N A M E'                 ,     I,STATUS,   VM  ,   VA
     1,'S1_1_1                                  ',     1,     1
     2,'S1_1_2                                  ',     1,     1
     3,'S1_1_3                                  ',     1,     1
     4,'S1_1_4                                  ',     1,     1
     5,'S1_1_5                                  ',     1,     1
     6,'S1_1_6                                  ',     1,     1
0 / END OF SUBSTATION NODE DATA, BEGIN SUBSTATION SWITCHING DEVICE DATA
@!  NI, NJ,CKTID,                'N A M E'                 ,  TYPE,STATUS, NSTAT,     X  ,  RATE1,  RATE2,  RATE3
     1,  5, '1 ','                                        ',     3,     0,     0, 0.00010,   0.00,   0.00,   0.00
     2,  5, '1 ','                                        ',     3,     1,     1, 0.00010,   0.00,   0.00,   0.00
     1,  6, '1 ','                                        ',     3,     0,     0, 0.00010,   0.00,   0.00,   0.00
     2,  6, '1 ','                                        ',     3,     1,     1, 0.00010,   0.00,   0.00,   0.00
     3,  5, '1 ','                                        ',     2,     1,     1, 0.00010,   0.00,   0.00,   0.00
     4,  6, '1 ','                                        ',     2,     1,     1, 0.00010,   0.00,   0.00,   0.00
     1,  2, '1 ','                                        ',     2,     1,     1, 0.00010,   0.00,   0.00,   0.00
0 / END OF SUBSTATION SWITCHING DEVICE DATA, BEGIN SUBSTATION TERMINAL DATA
@!   I, NI, TYP,     J,     K, ID
     1,  3, 'B',     2,       '3 '
     1,  4, 'M',              '2 '
0 / END OF SUBSTATION TERMINAL DATA
@! BEGIN SUBSTATION DATA BLOCK
@!  IS,                'N A M E'                 ,    LATITUDE,   LONGITUDE,    SGR
     2,'S2                                      ',   0.0000000,   0.0000000, 0.1000
@! BEGIN SUBSTATION NODE DATA
@!  NI,                'N A M E'                 ,     I,STATUS,   VM  ,   VA
     1,'S2_2_1                                  ',     2,     1
     2,'S2_2_2                                  ',     2,     1
     3,'S2_2_3                                  ',     2,     1
     4,'S2_2_4                                  ',     2,     1
     5,'S2_2_5                                  ',     2,     1
     6,'S2_2_6                                  ',     2,     1
     7,'S2_2_7                                  ',     2,     1
     8,'S2_2_8                                  ',     2,     1
     9,'S2_2_9                                  ',     3,     1
    10,'S2_2_10                                 ',     3,     1
    11,'S2_2_11                                 ',     3,     1
    12,'S2_2_12                                 ',     3,     1
    13,'S2_2_13                                 ',     3,     1
    14,'S2_2_14                                 ',     3,     1
    15,'S2_2_15                                 ',     3,     1
    16,'S2_2_16                                 ',     3,     1
    17,'S2_2_17                                 ',     4,     1
    18,'S2_2_18                                 ',     4,     1
    19,'S2_2_19                                 ',     4,     1
    20,'S2_2_20                                 ',     4,     1
    21,'S2_2_21                                 ',     4,     1
    22,'S2_2_22                                 ',     4,     1
    23,'S2_2_23                                 ',     5,     1
    24,'S2_2_24                                 ',     5,     1
    25,'S2_2_25                                 ',     5,     1
    26,'S2_2_26                                 ',     5,     1
    27,'S2_2_27                                 ',     5,     1
    28,'S2_2_28                                 ',     5,     1
0 / END OF SUBSTATION NODE DATA, BEGIN SUBSTATION SWITCHING DEVICE DATA
@!  NI, NJ,CKTID,                'N A M E'                 ,  TYPE,STATUS, NSTAT,     X  ,  RATE1,  RATE2,  RATE3
     1,  6, '1 ','                                        ',     3,     0,     0, 0.00010,   0.00,   0.00,   0.00
     2,  6, '1 ','                                        ',     3,     1,     1, 0.00010,   0.00,   0.00,   0.00
     1,  7, '1 ','                                        ',     3,     0,     0, 0.00010,   0.00,   0.00,   0.00
     2,  7, '1 ','                                        ',     3,     1,     1, 0.00010,   0.00,   0.00,   0.00
     1,  8, '1 ','                                        ',     3,     0,     0, 0.00010,   0.00,   0.00,   0.00
     2,  8, '1 ','                                        ',     3,     1,     1, 0.00010,   0.00,   0.00,   0.00
     3,  6, '1 ','                                        ',     2,     1,     1, 0.00010,   0.00,   0.00,   0.00
     4,  7, '1 ','                                        ',     2,     1,     1, 0.00010,   0.00,   0.00,   0.00
     5,  8, '1 ','                                        ',     2,     1,     1, 0.00010,   0.00,   0.00,   0.00
     1,  2, '1 ','                                        ',     2,     1,     1, 0.00010,   0.00,   0.00,   0.00
     9, 14, '1 ','                                        ',     3,     0,     0, 0.00010,   0.00,   0.00,   0.00
    10, 14, '1 ','                                        ',     3,     1,     1, 0.00010,   0.00,   0.00,   0.00
     9, 15, '1 ','                                        ',     3,     0,     0, 0.00010,   0.00,   0.00,   0.00
    10, 15, '1 ','                                        ',     3,     1,     1, 0.00010,   0.00,   0.00,   0.00
     9, 16, '1 ','                                        ',     3,     0,     0, 0.00010,   0.00,   0.00,   0.00
    10, 16, '1 ','                                        ',     3,     1,     1, 0.00010,   0.00,   0.00,   0.00
    11, 14, '1 ','                                        ',     2,     1,     1, 0.00010,   0.00,   0.00,   0.00
    12, 15, '1 ','                                        ',     2,     1,     1, 0.00010,   0.00,   0.00,   0.00
    13, 16, '1 ','                                        ',     2,     1,     1, 0.00010,   0.00,   0.00,   0.00
     9, 10, '1 ','                                        ',     2,     1,     1, 0.00010,   0.00,   0.00,   0.00
    17, 21, '1 ','                                        ',     3,     0,     0, 0.00010,   0.00,   0.00,   0.00
    18, 21, '1 ','                                        ',     3,     1,     1, 0.00010,   0.00,   0.00,   0.00
    17, 22, '1 ','                                        ',     3,     0,     0, 0.00010,   0.00,   0.00,   0.00
    18, 22, '1 ','                                        ',     3,     1,     1, 0.00010,   0.00,   0.00,   0.00
    19, 21, '1 ','                                        ',     2,     1,     1, 0.00010,   0.00,   0.00,   0.00
    20, 22, '1 ','                                        ',     2,     1,     1, 0.00010,   0.00,   0.00,   0.00
    17, 18, '1 ','                                        ',     2,     1,     1, 0.00010,   0.00,   0.00,   0.00
    23, 27, '1 ','                                        ',     3,     0,     0, 0.00010,   0.00,   0.00,   0.00
    24, 27, '1 ','                                        ',     3,     1,     1, 0.00010,   0.00,   0.00,   0.00
    23, 28, '1 ','                                        ',     3,     0,     0, 0.00010,   0.00,   0.00,   0.00
    24, 28, '1 ','                                        ',     3,     1,     1, 0.00010,   0.00,   0.00,   0.00
    25, 27, '1 ','                                        ',     2,     1,     1, 0.00010,   0.00,   0.00,   0.00
    26, 28, '1 ','                                        ',     2,     1,     1, 0.00010,   0.00,   0.00,   0.00
    23, 24, '1 ','                                        ',     2,     1,     1, 0.00010,   0.00,   0.00,   0.00
0 / END OF SUBSTATION SWITCHING DEVICE DATA, BEGIN SUBSTATION TERMINAL DATA
@!   I, NI, TYP,     J,     K, ID
     2,  3, '2',     3,       '3 '
     2,  4, '3',     4,     5,'2 '
     2,  5, 'B',     1,       '3 '
     3, 11, '2',     2,       '3 '
     3, 12, 'M',              '1 '
     3, 13, 'S',              '1 '
     4, 19, '3',     2,     5,'2 '
     4, 20, 'L',              '1 '
     5, 25, '3',     2,     4,'2 '
     5, 26, 'L',              '1 '
0 / END OF SUBSTATION TERMINAL DATA
0 / END OF SUBSTATION DATA
Q
